Using SPARSE 1.3 as Direct Linear Solver

Note: No compatibility mode selected!


Circuit: * ==========================================================================

Doing analysis at TEMP = 27.000000 and TNOM = 27.000000


Initial Transient Solution
--------------------------

Node                                   Voltage
----                                   -------
out                                    1.20001
sel                                          0
in0                                        0.6
selb                                       1.8
vpwr                                       1.8
in1                                        1.2
vsel#branch                                  0
vin1#branch                       -1.80002e-12
vin0#branch                         6.0302e-13
vddsrc#branch                     -4.94549e-12

 Reference value :  1.81828e-08 Reference value :  8.56450e-08
No. of Data Rows : 10020
tpd_sel_rise_out_fall=  1.443463e-10 targ=  2.024435e-08 trig=  2.010000e-08
tpd_sel_fall_out_rise=  4.302933e-10 targ=  6.073029e-08 trig=  6.030000e-08
tr_out              =  8.090166e-10 targ=  6.139662e-08 trig=  6.058761e-08
tf_out              =  8.569629e-11 targ=  2.030397e-08 trig=  2.021827e-08
Note: Simulation executed from .control section 
